119
123_IrBpin3dtbbpy_OAPypara_TS
Ir       0.809240000      0.124645000      0.022676000
B        1.125065000      2.136200000      0.419306000
O        1.704440000      2.709478000      1.540339000
O        0.815995000      3.146111000     -0.501472000
C        1.605777000      4.131898000      1.452995000
C        1.455138000      4.356003000     -0.079307000
C        2.848266000      4.744318000      2.061938000
C        0.377865000      4.559542000      2.237714000
C        2.791350000      4.426901000     -0.800237000
C        0.591259000      5.534281000     -0.468741000
H        2.854659000      5.825744000      1.925281000
H        2.864551000      4.539715000      3.131301000
H        3.752847000      4.328117000      1.627864000
H        0.473251000      4.194273000      3.259052000
H        0.281157000      5.644055000      2.266466000
H       -0.523157000      4.121956000      1.817092000
H        2.614853000      4.384148000     -1.873862000
H        3.322828000      5.350542000     -0.577050000
H        3.426179000      3.584792000     -0.529865000
H        1.009870000      6.463844000     -0.083640000
H        0.544833000      5.611327000     -1.554215000
H       -0.421670000      5.424636000     -0.091632000
B        1.556564000     -0.173184000      1.890772000
O        2.883099000     -0.029209000      2.287292000
O        0.811869000     -0.651443000      2.979231000
C        3.043092000     -0.529275000      3.613108000
C        1.591262000     -0.470641000      4.165667000
C        4.038316000      0.341272000      4.348239000
C        3.578038000     -1.948408000      3.506072000
C        1.236070000      0.896579000      4.726584000
C        1.240432000     -1.552227000      5.162297000
H        4.111100000      0.051507000      5.396559000
H        5.022103000      0.229623000      3.895328000
H        3.758802000      1.389176000      4.288018000
H        4.500924000     -1.932719000      2.928332000
H        3.794305000     -2.374132000      4.484852000
H        2.869576000     -2.599246000      2.994790000
H        0.166536000      0.923475000      4.923843000
H        1.764552000      1.099331000      5.657022000
H        1.463917000      1.677815000      4.003107000
H        1.874009000     -1.483862000      6.046531000
H        0.205470000     -1.431892000      5.478772000
H        1.348591000     -2.544789000      4.733091000
B       -1.010576000      0.670158000      0.954636000
O       -1.346624000      1.741857000      1.773786000
O       -2.173210000     -0.062581000      0.679020000
C       -2.699065000      1.591204000      2.213411000
C       -3.304389000      0.701289000      1.094858000
C       -3.333301000      2.957656000      2.349810000
C       -2.658691000      0.897139000      3.563964000
C       -3.763944000      1.502986000     -0.114049000
C       -4.400286000     -0.236962000      1.546784000
H       -4.391193000      2.868991000      2.597760000
H       -2.844152000      3.509381000      3.150927000
H       -3.236665000      3.535916000      1.434772000
H       -2.074957000      1.508823000      4.249061000
H       -3.656110000      0.770210000      3.982302000
H       -2.173294000     -0.074411000      3.486036000
H       -3.958420000      0.812357000     -0.933924000
H       -4.674858000      2.063995000      0.090271000
H       -2.988415000      2.196547000     -0.436455000
H       -5.244437000      0.318679000      1.955070000
H       -4.756361000     -0.817170000      0.696606000
H       -4.039119000     -0.930986000      2.300566000
C       -0.868507000     -2.009297000     -1.399112000
C        0.011615000     -2.855036000      0.537037000
C       -1.372983000     -3.249436000     -1.730802000
C       -0.484511000     -4.114002000      0.272171000
H        0.555763000     -2.649213000      1.446478000
C       -1.186051000     -4.343327000     -0.897618000
H       -1.907073000     -3.372752000     -2.657877000
H       -0.301293000     -4.897855000      0.988805000
C       -1.085452000     -0.810179000     -2.242462000
C       -0.553497000      1.377795000     -2.643856000
C       -2.005716000     -0.799924000     -3.279680000
C       -1.441286000      1.450043000     -3.690878000
H        0.030031000      2.232636000     -2.332624000
C       -2.207038000      0.342043000     -4.031690000
H       -2.582755000     -1.684938000     -3.480243000
H       -1.536323000      2.384413000     -4.223329000
N       -0.158397000     -1.831093000     -0.283234000
N       -0.377963000      0.270413000     -1.930015000
C        2.497566000     -0.776972000     -1.070537000
C        3.349149000     -1.700422000     -0.474383000
C        4.179351000     -2.482953000     -1.256290000
H        3.378735000     -1.807433000      0.599003000
H        4.829178000     -3.214921000     -0.788780000
H        2.303528000      0.647162000     -0.312979000
C       -1.738243000     -5.704075000     -1.290938000
C       -1.434986000     -6.765569000     -0.241680000
H       -1.881541000     -6.521589000      0.721812000
H       -1.847410000     -7.721401000     -0.561933000
H       -0.363054000     -6.901123000     -0.102000000
C       -1.102476000     -6.131362000     -2.614337000
H       -1.471892000     -7.114307000     -2.905566000
H       -1.334636000     -5.437458000     -3.420253000
H       -0.018112000     -6.187053000     -2.525619000
C       -3.254991000     -5.600533000     -1.453519000
H       -3.668430000     -6.571719000     -1.724378000
H       -3.725115000     -5.277335000     -0.525131000
H       -3.533483000     -4.893264000     -2.232837000
C       -3.215161000      0.422205000     -5.166896000
C       -3.948539000     -0.895544000     -5.380586000
H       -4.516779000     -1.191412000     -4.498976000
H       -4.654446000     -0.789235000     -6.203211000
H       -3.263545000     -1.702567000     -5.639971000
C       -4.244099000      1.504032000     -4.836897000
H       -3.780859000      2.482160000     -4.722659000
H       -4.980439000      1.575696000     -5.637079000
H       -4.769818000      1.273616000     -3.910407000
C       -2.480416000      0.784282000     -6.457807000
H       -1.975655000      1.745416000     -6.381594000
H       -1.731586000      0.031886000     -6.703798000
H       -3.186634000      0.844509000     -7.285522000
C        2.602191000     -0.671490000     -2.454401000
H        2.007546000      0.043766000     -3.004768000
C        3.469644000     -1.493051000     -3.151116000
H        3.539809000     -1.414397000     -4.230773000
N        4.248183000     -2.401053000     -2.578558000