119
126_IrBpin3dtbbpy_OAortho
Ir       0.874916000      0.179181000     -0.084052000
B        0.702607000      2.187688000      0.476274000
O        1.276142000      2.809779000      1.577036000
O        0.113107000      3.152687000     -0.351303000
C        0.941642000      4.194637000      1.558846000
C        0.602484000      4.433820000      0.057852000
C        2.123399000      4.987364000      2.073861000
C       -0.252005000      4.394868000      2.476221000
C        1.833511000      4.733303000     -0.782416000
C       -0.464573000      5.474421000     -0.196590000
H        1.943531000      6.058362000      1.980121000
H        2.278037000      4.760913000      3.127548000
H        3.034627000      4.732642000      1.540510000
H       -0.005688000      3.998407000      3.459446000
H       -0.509428000      5.448278000      2.577023000
H       -1.116930000      3.848861000      2.111029000
H        1.556349000      4.702250000     -1.835102000
H        2.239028000      5.720149000     -0.565742000
H        2.613270000      3.991545000     -0.616706000
H       -0.152067000      6.447552000      0.181527000
H       -0.636698000      5.566741000     -1.267789000
H       -1.405948000      5.203274000      0.273019000
B        1.920126000     -0.140814000      1.638169000
O        3.141436000      0.423633000      1.974985000
O        1.527165000     -1.012092000      2.669025000
C        3.624848000     -0.163524000      3.179610000
C        2.321885000     -0.714932000      3.822192000
C        4.330121000      0.899413000      3.993733000
C        4.605352000     -1.258441000      2.793295000
C        1.569448000      0.340582000      4.616413000
C        2.495390000     -1.969740000      4.647124000
H        4.618691000      0.514892000      4.972160000
H        5.232576000      1.214181000      3.472336000
H        3.697921000      1.772808000      4.126834000
H        5.375250000     -0.825649000      2.157207000
H        5.083503000     -1.699982000      3.666738000
H        4.111934000     -2.045502000      2.226343000
H        0.582960000     -0.046912000      4.864707000
H        2.087385000      0.591526000      5.541035000
H        1.429382000      1.242699000      4.022929000
H        3.164837000     -1.788684000      5.488026000
H        1.530620000     -2.280313000      5.046312000
H        2.897198000     -2.786656000      4.053534000
B       -0.904598000      0.770387000      1.004361000
O       -1.126124000      1.064512000      2.338340000
O       -2.124589000      0.533492000      0.375343000
C       -2.484791000      0.755302000      2.661644000
C       -3.188526000      0.844555000      1.275340000
C       -2.985858000      1.736864000      3.697372000
C       -2.491842000     -0.649785000      3.241275000
C       -3.668849000      2.243729000      0.931628000
C       -4.308047000     -0.152648000      1.066550000
H       -4.037616000      1.557664000      3.920214000
H       -2.417710000      1.612101000      4.617668000
H       -2.869999000      2.765283000      3.368876000
H       -1.811110000     -0.680446000      4.089688000
H       -3.484902000     -0.940078000      3.581004000
H       -2.144578000     -1.376771000      2.510336000
H       -3.977563000      2.258485000     -0.112041000
H       -4.513538000      2.546202000      1.548434000
H       -2.867219000      2.970008000      1.046049000
H       -5.102984000     -0.006919000      1.797778000
H       -4.732674000     -0.016809000      0.073068000
H       -3.944999000     -1.174773000      1.139849000
C       -1.050031000     -1.818674000     -1.294349000
C       -0.318446000     -2.571971000      0.747555000
C       -1.881123000     -2.912416000     -1.412965000
C       -1.120878000     -3.691443000      0.674714000
H        0.306343000     -2.380042000      1.608449000
C       -1.941517000     -3.881769000     -0.422200000
H       -2.503564000     -3.006236000     -2.286638000
H       -1.094974000     -4.390074000      1.495238000
C       -0.959501000     -0.772122000     -2.338639000
C       -0.092570000      1.259178000     -2.925901000
C       -1.567027000     -0.901427000     -3.577033000
C       -0.680773000      1.202464000     -4.167080000
H        0.507814000      2.101219000     -2.620232000
C       -1.439790000      0.096766000     -4.525803000
H       -2.125909000     -1.791233000     -3.804919000
H       -0.528086000      2.024191000     -4.850198000
N       -0.285210000     -1.652479000     -0.207230000
N       -0.234819000      0.294400000     -2.030063000
C        2.347889000     -0.908767000     -1.175092000
C        2.919540000     -2.101465000     -0.717818000
C        3.583036000     -1.094971000     -3.113718000
C        3.836220000     -2.787092000     -1.485570000
H        2.639780000     -2.487756000      0.253382000
C        4.186109000     -2.273367000     -2.722659000
H        3.827315000     -0.654409000     -4.075150000
H        4.278886000     -3.707415000     -1.125074000
H        4.904307000     -2.765758000     -3.363084000
H        1.954457000      1.347018000     -0.251268000
C       -2.882173000     -5.066698000     -0.570912000
C       -2.779520000     -6.025981000      0.607612000
H       -3.049790000     -5.544480000      1.546817000
H       -3.463962000     -6.859943000      0.458123000
H       -1.775830000     -6.438100000      0.707073000
C       -2.531496000     -5.828209000     -1.849371000
H       -3.188700000     -6.690097000     -1.961719000
H       -2.644129000     -5.208494000     -2.737061000
H       -1.502721000     -6.185834000     -1.820253000
C       -4.318707000     -4.549111000     -0.654699000
H       -5.010930000     -5.384468000     -0.758489000
H       -4.587418000     -3.995655000      0.244856000
H       -4.463832000     -3.888861000     -1.507974000
C       -2.079096000      0.016987000     -5.903431000
C       -2.845139000     -1.283385000     -6.109804000
H       -3.663198000     -1.389811000     -5.397389000
H       -3.279033000     -1.294602000     -7.108898000
H       -2.194858000     -2.153900000     -6.025636000
C       -3.052493000      1.185026000     -6.064024000
H       -2.549305000      2.145771000     -5.972747000
H       -3.524583000      1.147403000     -7.045631000
H       -3.835383000      1.145334000     -5.307092000
C       -0.983548000      0.107700000     -6.965970000
H       -0.435064000      1.045387000     -6.902843000
H       -0.266427000     -0.705270000     -6.856389000
H       -1.422171000      0.044689000     -7.961657000
N        2.695706000     -0.434909000     -2.379640000