120
147_IrBpin3dtbbpy_e2Ph
Ir      -0.950698000     -0.649175000      0.232411000
B       -0.271363000      1.265058000      0.296462000
O       -0.944132000      2.410608000      0.747091000
O        0.966354000      1.681602000     -0.236189000
C       -0.231349000      3.578661000      0.354600000
C        1.210189000      3.036165000      0.139531000
C       -0.362620000      4.625779000      1.439403000
C       -0.868092000      4.087451000     -0.930152000
C        2.027734000      3.017344000      1.420765000
C        1.991340000      3.723802000     -0.959347000
H        0.253589000      5.497534000      1.218238000
H       -1.399439000      4.953063000      1.507114000
H       -0.072407000      4.224594000      2.406300000
H       -1.933508000      4.232688000     -0.756058000
H       -0.437723000      5.035327000     -1.250667000
H       -0.748137000      3.365736000     -1.737102000
H        2.945919000      2.461011000      1.236060000
H        2.294505000      4.023554000      1.741717000
H        1.484853000      2.510523000      2.215050000
H        2.118826000      4.783978000     -0.739928000
H        2.980107000      3.274181000     -1.036210000
H        1.501774000      3.623240000     -1.924307000
B        0.029050000     -0.815280000      2.013195000
O        0.731739000      0.163760000      2.725087000
O        0.139294000     -2.023024000      2.739482000
C        1.446074000     -0.430425000      3.802139000
C        0.651295000     -1.744259000      4.042285000
C        1.459321000      0.525294000      4.975666000
C        2.867409000     -0.677809000      3.320908000
C       -0.540371000     -1.549427000      4.965587000
C        1.485723000     -2.916477000      4.510640000
H        1.908795000      0.060292000      5.853407000
H        2.047699000      1.406166000      4.722356000
H        0.453818000      0.852691000      5.224663000
H        3.287794000      0.265815000      2.977265000
H        3.503932000     -1.071223000      4.112371000
H        2.879984000     -1.374772000      2.484313000
H       -1.153369000     -2.449665000      4.936535000
H       -0.229309000     -1.379123000      5.995521000
H       -1.152575000     -0.716097000      4.626919000
H        1.962045000     -2.696953000      5.466242000
H        0.845993000     -3.787504000      4.647037000
H        2.256727000     -3.172981000      3.788832000
B       -2.478908000      0.038029000      1.336329000
O       -2.541472000      0.238178000      2.716105000
O       -3.732819000      0.342703000      0.782309000
C       -3.896216000      0.467626000      3.093453000
C       -4.521019000      1.000995000      1.773069000
C       -3.928852000      1.441317000      4.250832000
C       -4.476719000     -0.871598000      3.521285000
C       -4.321158000      2.496833000      1.591376000
C       -5.975935000      0.640713000      1.567621000
H       -4.953922000      1.716705000      4.499691000
H       -3.480778000      0.979072000      5.129420000
H       -3.366790000      2.342148000      4.020903000
H       -3.860442000     -1.278680000      4.321247000
H       -5.497940000     -0.773893000      3.887277000
H       -4.464438000     -1.580210000      2.694394000
H       -4.611142000      2.763236000      0.575451000
H       -4.931984000      3.072865000      2.285392000
H       -3.273496000      2.761304000      1.719816000
H       -6.595387000      1.058521000      2.361376000
H       -6.320059000      1.051031000      0.619106000
H       -6.119441000     -0.436063000      1.540916000
C       -2.560113000     -2.944492000     -1.089681000
C       -1.435713000     -3.776111000      0.720142000
C       -3.015551000     -4.211758000     -1.418939000
C       -1.868165000     -5.055208000      0.456845000
H       -0.803750000     -3.549029000      1.567360000
C       -2.671759000     -5.306256000     -0.646782000
H       -3.630850000     -4.340756000     -2.291665000
H       -1.559182000     -5.849523000      1.119956000
C       -2.934968000     -1.741681000     -1.873401000
C       -2.633286000      0.499432000     -2.194756000
C       -3.921762000     -1.769556000     -2.847632000
C       -3.591177000      0.540022000     -3.178274000
H       -2.116405000      1.393258000     -1.878791000
C       -4.270897000     -0.619530000     -3.530366000
H       -4.433618000     -2.692668000     -3.053301000
H       -3.809788000      1.486334000     -3.649563000
N       -1.766217000     -2.738531000     -0.041793000
N       -2.299496000     -0.617994000     -1.560992000
C        0.844056000     -1.083286000     -1.757412000
H        0.768961000     -0.042880000     -2.035909000
C        1.512855000     -1.425123000     -0.590172000
H        1.949773000     -0.645586000      0.015687000
C        0.383973000     -2.087512000     -2.613570000
H       -0.130330000     -1.815964000     -3.525718000
C        1.716143000     -2.773684000     -0.283103000
H        2.232603000     -3.040807000      0.628200000
C        1.258345000     -3.754646000     -1.128903000
H        1.418693000     -4.796622000     -0.886707000
C        0.586446000     -3.410528000     -2.302467000
H        0.229850000     -4.185892000     -2.967130000
C       -5.354814000     -0.583104000     -4.596008000
C       -3.126814000     -6.721965000     -0.964186000
C       -5.962097000     -1.957336000     -4.847158000
H       -5.215021000     -2.673876000     -5.188365000
H       -6.444683000     -2.356636000     -3.955427000
H       -6.722475000     -1.882133000     -5.623455000
C       -4.751971000     -0.072779000     -5.904852000
H       -5.516027000     -0.042084000     -6.681274000
H       -4.345157000      0.931230000     -5.800653000
H       -3.948397000     -0.725686000     -6.244958000
C       -6.464775000      0.362263000     -4.135035000
H       -6.097809000      1.376619000     -3.990245000
H       -7.259863000      0.397931000     -4.879539000
H       -6.894414000      0.025553000     -3.192026000
C       -4.013530000     -6.779684000     -2.201373000
H       -4.922531000     -6.191829000     -2.075313000
H       -3.492571000     -6.426871000     -3.091202000
H       -4.313160000     -7.810536000     -2.385903000
C       -1.893610000     -7.592166000     -1.208777000
H       -1.243621000     -7.625971000     -0.336443000
H       -2.195014000     -8.613769000     -1.439693000
H       -1.309326000     -7.212929000     -2.047078000
C       -3.916447000     -7.269824000      0.224639000
H       -4.256467000     -8.283331000      0.012882000
H       -3.314155000     -7.304072000      1.130309000
H       -4.791200000     -6.652917000      0.428505000