120
148_IrBpin3dtbbpy_OAPhH_TS
Ir       0.817196000      0.118366000      0.021808000
B        1.121949000      2.128939000      0.419713000
O        1.689069000      2.708488000      1.544629000
O        0.815210000      3.138005000     -0.505006000
C        1.588783000      4.129490000      1.451807000
C        1.451088000      4.348515000     -0.082251000
C        2.825023000      4.746135000      2.069489000
C        0.353553000      4.558634000      2.224271000
C        2.793619000      4.416500000     -0.791912000
C        0.591377000      5.526148000     -0.483093000
H        2.831661000      5.827047000      1.928394000
H        2.831856000      4.545728000      3.139765000
H        3.733703000      4.328655000      1.645295000
H        0.439738000      4.195341000      3.247124000
H        0.255915000      5.643209000      2.249670000
H       -0.543435000      4.119581000      1.796635000
H        2.626092000      4.370166000     -1.866857000
H        3.323776000      5.340583000     -0.567133000
H        3.425344000      3.574572000     -0.513737000
H        1.007361000      6.456856000     -0.097791000
H        0.553995000      5.599285000     -1.569227000
H       -0.424778000      5.418528000     -0.114092000
B        1.573069000     -0.183460000      1.884354000
O        2.890340000      0.010530000      2.289646000
O        0.846159000     -0.712390000      2.963682000
C        3.067847000     -0.501235000      3.607392000
C        1.613041000     -0.515691000      4.155159000
C        4.020629000      0.402326000      4.359266000
C        3.666795000     -1.893212000      3.482723000
C        1.195999000      0.825785000      4.735526000
C        1.307645000     -1.626665000      5.134381000
H        4.101113000      0.103013000      5.404396000
H        5.010465000      0.339397000      3.910033000
H        3.696004000      1.437769000      4.309984000
H        4.585635000     -1.827610000      2.902098000
H        3.904765000     -2.319824000      4.456202000
H        2.987921000     -2.569894000      2.965052000
H        0.126678000      0.800549000      4.933968000
H        1.715825000      1.039890000      5.668313000
H        1.386433000      1.626764000      4.022668000
H        1.933668000     -1.542466000      6.022663000
H        0.266813000     -1.558559000      5.447327000
H        1.463296000     -2.606789000      4.691364000
B       -1.005073000      0.663513000      0.956870000
O       -1.341657000      1.720151000      1.796863000
O       -2.172060000     -0.057042000      0.662062000
C       -2.697747000      1.569931000      2.223564000
C       -3.300798000      0.705605000      1.084054000
C       -3.324740000      2.937393000      2.382103000
C       -2.672216000      0.849868000      3.560891000
C       -3.746797000      1.533354000     -0.112427000
C       -4.406010000     -0.234031000      1.510224000
H       -4.384470000      2.850407000      2.622912000
H       -2.836358000      3.471393000      3.195639000
H       -3.220166000      3.532096000      1.478546000
H       -2.090444000      1.444779000      4.262199000
H       -3.673623000      0.720489000      3.968918000
H       -2.191965000     -0.122963000      3.467821000
H       -3.937776000      0.859987000     -0.947375000
H       -4.656431000      2.095197000      0.095525000
H       -2.964924000      2.228742000     -0.415026000
H       -5.249370000      0.318900000      1.923911000
H       -4.760037000     -0.795194000      0.646459000
H       -4.054125000     -0.945083000      2.252473000
C       -0.872252000     -2.011132000     -1.394594000
C        0.005546000     -2.855911000      0.542733000
C       -1.391437000     -3.247671000     -1.717844000
C       -0.505177000     -4.110919000      0.286297000
H        0.553812000     -2.650567000      1.449806000
C       -1.214913000     -4.338484000     -0.878775000
H       -1.931287000     -3.370069000     -2.641665000
H       -0.328253000     -4.892547000      1.006985000
C       -1.080804000     -0.814235000     -2.242992000
C       -0.541551000      1.370900000     -2.647526000
C       -1.994740000     -0.804673000     -3.286221000
C       -1.423119000      1.442778000     -3.699766000
H        0.042635000      2.224963000     -2.335562000
C       -2.189060000      0.335492000     -4.042374000
H       -2.571984000     -1.689039000     -3.488748000
H       -1.512787000      2.376071000     -4.235099000
N       -0.157744000     -1.834183000     -0.281599000
N       -0.372869000      0.265351000     -1.929439000
C        2.504402000     -0.785531000     -1.078960000
C        2.620932000     -0.629692000     -2.458443000
C        3.337615000     -1.722568000     -0.473875000
C        3.489230000     -1.407431000     -3.207742000
H        2.022252000      0.113485000     -2.967179000
C        4.201880000     -2.510267000     -1.216742000
H        3.322728000     -1.832670000      0.600029000
C        4.279586000     -2.361132000     -2.590651000
H        3.551312000     -1.262203000     -4.278783000
H        4.827536000     -3.237718000     -0.715176000
H        4.959389000     -2.969849000     -3.171549000
H        2.299264000      0.669614000     -0.295268000
C       -1.788845000     -5.693866000     -1.259931000
C       -1.493230000     -6.753293000     -0.206399000
H       -1.930072000     -6.497381000      0.758422000
H       -1.920598000     -7.705450000     -0.518121000
H       -0.422293000     -6.902041000     -0.072436000
C       -1.169636000     -6.139128000     -2.585166000
H       -1.556436000     -7.117972000     -2.867726000
H       -1.396630000     -5.446337000     -3.393523000
H       -0.085638000     -6.211020000     -2.503307000
C       -3.305135000     -5.569992000     -1.412233000
H       -3.734433000     -6.536589000     -1.674980000
H       -3.763691000     -5.235117000     -0.482211000
H       -3.579024000     -4.862516000     -2.192988000
C       -3.189667000      0.414753000     -5.184406000
C       -3.924533000     -0.901936000     -5.399570000
H       -4.499057000     -1.194201000     -4.520836000
H       -4.624794000     -0.796326000     -6.227160000
H       -3.239471000     -1.711114000     -5.652005000
C       -4.218631000      1.499533000     -4.864487000
H       -3.753931000      2.476823000     -4.749021000
H       -4.949186000      1.571000000     -5.670035000
H       -4.751248000      1.272407000     -3.941134000
C       -2.445939000      0.771772000     -6.471549000
H       -1.939435000      1.731911000     -6.394298000
H       -1.697020000      0.017117000     -6.710324000
H       -3.146524000      0.831409000     -7.304157000