120
150_IrBpin2Hdtbbpy_cis_e2PhBpin
Ir       0.961134000      0.068482000     -0.714090000
B        2.423043000      1.088804000     -1.682140000
O        3.629080000      0.615296000     -2.215849000
O        2.334137000      2.466395000     -2.004900000
C        4.416588000      1.710028000     -2.670234000
C        3.337870000      2.785707000     -2.966645000
C        5.230529000      1.275289000     -3.869327000
C        5.344404000      2.111305000     -1.533938000
C        2.715507000      2.626610000     -4.344942000
C        3.788565000      4.215811000     -2.764601000
H        4.600024000      0.836569000     -4.637534000
H        5.775241000      2.117275000     -4.297056000
H        5.956103000      0.523867000     -3.561523000
H        4.776483000      2.438122000     -0.664053000
H        5.932647000      1.244200000     -1.241675000
H        6.025847000      2.908213000     -1.828602000
H        1.838004000      3.268487000     -4.410491000
H        3.407193000      2.909597000     -5.137106000
H        2.394595000      1.599132000     -4.507752000
H        4.098779000      4.394725000     -1.738568000
H        4.619558000      4.458398000     -3.427101000
H        2.967524000      4.894266000     -2.993070000
B       -1.333313000      0.226084000      3.025156000
O       -2.499497000      0.675784000      3.602951000
O       -1.120101000     -1.108650000      3.275008000
C       -3.194065000     -0.462028000      4.135741000
C       -2.049029000     -1.510577000      4.293070000
C       -4.234112000     -0.868023000      3.107136000
C       -3.870470000     -0.063738000      5.427404000
C       -2.459391000     -2.943097000      4.042493000
C       -1.321637000     -1.397070000      5.621196000
H       -3.763628000     -1.174204000      2.175670000
H       -4.858706000     -1.682222000      3.471345000
H       -4.873899000     -0.010893000      2.901939000
H       -4.651105000      0.665638000      5.218913000
H       -4.332694000     -0.928808000      5.901772000
H       -3.168970000      0.384918000      6.124451000
H       -1.600643000     -3.596375000      4.186381000
H       -3.239034000     -3.249836000      4.739145000
H       -2.817502000     -3.079208000      3.026635000
H       -0.422110000     -2.008061000      5.579297000
H       -1.020521000     -0.369897000      5.819668000
H       -1.938045000     -1.746439000      6.447371000
C       -2.040404000      0.896721000     -0.738447000
C       -0.797907000      2.676218000     -1.445299000
C       -3.174354000      1.679322000     -0.669803000
C       -1.902135000      3.508437000     -1.434182000
H        0.180670000      3.032872000     -1.737055000
C       -3.127192000      3.023993000     -1.013580000
H       -4.096937000      1.242309000     -0.322080000
H       -1.771815000      4.535565000     -1.735548000
C       -2.062957000     -0.553307000     -0.435170000
C       -0.855968000     -2.426167000      0.064409000
C       -3.233616000     -1.293754000     -0.498978000
C       -1.981653000     -3.215888000      0.036473000
H        0.121651000     -2.846823000      0.246675000
C       -3.216819000     -2.657376000     -0.268058000
H       -4.149974000     -0.797796000     -0.768470000
H       -1.873765000     -4.273744000      0.224304000
N       -0.856777000      1.403145000     -1.090917000
N       -0.889481000     -1.120191000     -0.173825000
C       -0.348269000      1.137518000      2.249509000
C       -0.642172000      2.467818000      2.048940000
C        0.909653000      0.647203000      1.836173000
C        0.288835000      3.327054000      1.458367000
H       -1.600433000      2.853469000      2.372497000
C        1.842528000      1.497074000      1.255644000
H        1.203661000     -0.355474000      2.110483000
C        1.513493000      2.850609000      1.073354000
H        0.044801000      4.371307000      1.316389000
H        2.851789000      1.150761000      1.096108000
H        2.238555000      3.512680000      0.622201000
C       -4.376438000      3.883186000     -0.897462000
C       -4.814052000      3.913475000      0.567652000
H       -4.032487000      4.336693000      1.198198000
H       -5.709178000      4.525347000      0.679104000
H       -5.040140000      2.917446000      0.944799000
C       -5.488001000      3.280424000     -1.756473000
H       -5.750252000      2.273864000     -1.435718000
H       -6.386672000      3.893323000     -1.689569000
H       -5.187518000      3.230782000     -2.802718000
C       -4.130786000      5.313178000     -1.360425000
H       -3.370204000      5.808569000     -0.757966000
H       -3.823078000      5.352630000     -2.404945000
H       -5.050339000      5.889379000     -1.265627000
C       -4.455498000     -3.532948000     -0.386779000
C       -4.660728000     -4.318168000      0.907946000
H       -3.803902000     -4.944972000      1.147576000
H       -4.834759000     -3.647933000      1.748808000
H       -5.529198000     -4.969810000      0.812797000
C       -5.712936000     -2.716013000     -0.655501000
H       -5.904504000     -1.995738000      0.140299000
H       -5.654974000     -2.179790000     -1.602128000
H       -6.573682000     -3.381317000     -0.710959000
C       -4.246166000     -4.506551000     -1.547593000
H       -4.081779000     -3.969009000     -2.480832000
H       -3.385831000     -5.151890000     -1.379955000
H       -5.124033000     -5.141129000     -1.668226000
H        0.909109000     -0.658901000     -2.098409000
B        2.417156000     -1.269442000     -0.296945000
O        2.474040000     -2.597529000     -0.756867000
O        3.475004000     -1.089735000      0.616465000
C        3.442514000     -3.322323000     -0.005798000
C        4.371254000     -2.193460000      0.522524000
C        4.117383000     -4.331616000     -0.908835000
H        4.518999000     -3.854594000     -1.798215000
H        4.925461000     -4.844928000     -0.387114000
H        3.390718000     -5.077648000     -1.227429000
C        2.703467000     -4.044286000      1.111679000
H        3.369058000     -4.673650000      1.700894000
H        2.215651000     -3.334529000      1.779341000
H        1.937764000     -4.680793000      0.669012000
C        5.458795000     -1.815326000     -0.469991000
H        6.201546000     -2.605004000     -0.575663000
H        5.029863000     -1.584040000     -1.443098000
H        5.959269000     -0.919659000     -0.105858000
C        4.982244000     -2.456418000      1.881977000
H        5.609284000     -1.612809000      2.166501000
H        4.219358000     -2.578959000      2.646089000
H        5.606740000     -3.349846000      1.861992000