120
153_IrBpin2Hdtbbpy_trans_e2PhBpin
Ir       1.369203000     -0.682129000      0.705581000
B        3.085351000     -0.844306000     -0.372257000
O        3.136704000     -1.207487000     -1.738792000
O        4.402122000     -0.598185000      0.044927000
C        4.466705000     -1.057931000     -2.226935000
C        5.306215000     -1.126011000     -0.921225000
C        4.551161000      0.297995000     -2.910768000
C        4.753625000     -2.157164000     -3.226634000
C        6.569512000     -0.293358000     -0.932871000
C        5.625978000     -2.552816000     -0.503003000
H        5.524251000      0.463025000     -3.371238000
H        3.792161000      0.346788000     -3.690963000
H        4.362772000      1.101067000     -2.199827000
H        4.118186000     -2.030532000     -4.102398000
H        5.792915000     -2.125786000     -3.554535000
H        4.551138000     -3.136083000     -2.801001000
H        7.081812000     -0.402084000      0.021651000
H        7.246893000     -0.624680000     -1.720238000
H        6.353192000      0.761706000     -1.078331000
H        6.350226000     -3.018757000     -1.170220000
H        6.045615000     -2.530574000      0.501302000
H        4.720988000     -3.157401000     -0.468607000
B       -1.548423000      3.683569000      0.624563000
O       -2.031654000      4.339446000     -0.487268000
O       -2.441620000      3.730959000      1.671443000
C       -3.180566000      5.094811000     -0.067386000
C       -3.665898000      4.289208000      1.173649000
C       -4.173005000      5.170534000     -1.203812000
C       -2.687714000      6.486270000      0.288963000
C       -4.562812000      3.120235000      0.806019000
C       -4.309887000      5.120781000      2.258207000
H       -3.742702000      5.738086000     -2.027021000
H       -4.437076000      4.185247000     -1.575952000
H       -5.082877000      5.677384000     -0.883689000
H       -2.179093000      6.908768000     -0.575355000
H       -3.509935000      7.145179000      0.561295000
H       -1.978328000      6.453754000      1.114121000
H       -4.686598000      2.492603000      1.686135000
H       -5.545234000      3.451129000      0.474043000
H       -4.108019000      2.518687000      0.020906000
H       -3.621554000      5.861347000      2.654472000
H       -5.194019000      5.630458000      1.876878000
H       -4.618662000      4.475395000      3.078561000
B        1.210390000     -2.601362000      0.168419000
O        2.168711000     -3.616029000      0.211509000
O        0.027702000     -3.124486000     -0.384402000
C        1.560254000     -4.848604000     -0.163310000
C        0.341591000     -4.372011000     -1.001038000
C        1.152465000     -5.561535000      1.116084000
C        2.565545000     -5.684688000     -0.924575000
C       -0.866847000     -5.279498000     -0.943529000
C        0.706793000     -4.072306000     -2.447024000
H        0.742489000     -6.550763000      0.916656000
H        2.032570000     -5.671390000      1.747262000
H        0.415060000     -4.978488000      1.665641000
H        3.383675000     -5.963506000     -0.262035000
H        2.106708000     -6.599357000     -1.300884000
H        2.983170000     -5.132452000     -1.762089000
H       -1.664096000     -4.862504000     -1.557412000
H       -0.626371000     -6.270557000     -1.328591000
H       -1.240490000     -5.379483000      0.071948000
H        0.904524000     -4.981271000     -3.013866000
H       -0.128483000     -3.550094000     -2.912072000
H        1.578545000     -3.420660000     -2.497306000
C       -1.355138000     -0.007293000     -0.489614000
C        0.275743000      0.252083000     -2.073148000
C       -2.325071000      0.396135000     -1.394374000
C       -0.637585000      0.659601000     -3.015021000
H        1.325423000      0.149998000     -2.305847000
C       -1.982778000      0.753591000     -2.684733000
H       -3.353748000      0.432700000     -1.083468000
H       -0.282665000      0.904499000     -4.004772000
C       -1.683804000     -0.407018000      0.900355000
C       -0.883086000     -1.067164000      2.939085000
C       -2.988404000     -0.493028000      1.364942000
C       -2.148702000     -1.159608000      3.465075000
H       -0.006610000     -1.298744000      3.527430000
C       -3.250852000     -0.874191000      2.666638000
H       -3.802277000     -0.271197000      0.698386000
H       -2.262329000     -1.462338000      4.495030000
N       -0.068627000     -0.058892000     -0.827970000
N       -0.650825000     -0.696662000      1.685604000
C       -0.158602000      3.005069000      0.713202000
C        0.779589000      3.127454000     -0.321854000
C        0.200886000      2.299450000      1.846527000
C        2.024366000      2.559142000     -0.215459000
H        0.513299000      3.685075000     -1.210437000
C        1.457336000      1.705349000      1.961562000
H       -0.507485000      2.208544000      2.659630000
C        2.375022000      1.833654000      0.927685000
H        2.742928000      2.668224000     -1.016202000
H        1.746931000      1.210375000      2.876832000
H        3.374796000      1.441038000      1.038523000
H        2.310500000     -1.189369000      1.884613000
C       -2.993173000      1.244575000     -3.708577000
C       -2.631989000      2.682312000     -4.086327000
H       -2.607604000      3.322448000     -3.204835000
H       -1.653712000      2.736035000     -4.561152000
H       -3.364645000      3.082058000     -4.787791000
C       -4.417564000      1.223051000     -3.169432000
H       -4.729020000      0.216969000     -2.888406000
H       -4.534819000      1.874766000     -2.304623000
H       -5.103197000      1.576043000     -3.938764000
C       -2.935599000      0.351058000     -4.947215000
H       -1.951023000      0.360627000     -5.410262000
H       -3.175941000     -0.681351000     -4.694541000
H       -3.654422000      0.696106000     -5.690241000
C       -4.658514000     -0.978195000      3.232821000
C       -4.817677000      0.070301000      4.334529000
H       -4.656296000      1.074834000      3.943907000
H       -5.821929000      0.024023000      4.755534000
H       -4.107936000     -0.087473000      5.144856000
C       -5.726255000     -0.741973000      2.171932000
H       -5.654409000     -1.466620000      1.361083000
H       -6.712963000     -0.847664000      2.621045000
H       -5.668325000      0.259224000      1.746939000
C       -4.866938000     -2.375549000      3.817098000
H       -4.173456000     -2.586955000      4.628261000
H       -5.877396000     -2.465960000      4.214880000
H       -4.731796000     -3.140854000      3.053404000