88
154_IrBpin2Hdtbbpy_vac_cis
Ir      -0.326367000      0.977837000      0.828518000
B       -2.220410000      0.595333000      1.397162000
O       -2.897405000      1.190096000      2.475382000
O       -3.064557000     -0.392736000      0.849895000
C       -4.090592000      0.460037000      2.743455000
C       -4.379766000     -0.204285000      1.370714000
C       -5.161767000      1.413126000      3.226522000
C       -3.771982000     -0.553005000      3.832419000
C       -5.108996000      0.726472000      0.414334000
C       -5.087283000     -1.539026000      1.442706000
H       -4.871453000      1.829402000      4.190088000
H       -5.298243000      2.237235000      2.532550000
H       -6.113868000      0.896936000      3.352157000
H       -3.017576000     -1.262227000      3.494863000
H       -3.371817000     -0.021556000      4.694291000
H       -4.656802000     -1.104914000      4.147047000
H       -5.098560000      0.281010000     -0.579020000
H       -6.144638000      0.885253000      0.711950000
H       -4.600562000      1.687810000      0.352719000
H       -5.236547000     -1.925785000      0.435616000
H       -4.507171000     -2.268440000      2.002108000
H       -6.065015000     -1.435965000      1.913688000
C        1.878024000     -1.169389000      0.424708000
C       -0.158265000     -2.182059000      0.690305000
C        2.470069000     -2.383635000      0.116639000
C        0.370984000     -3.419364000      0.406816000
H       -1.211907000     -2.045179000      0.894326000
C        1.721465000     -3.547512000      0.106433000
H        3.515433000     -2.412412000     -0.136131000
H       -0.287006000     -4.275288000      0.410609000
C        2.635465000      0.108669000      0.433064000
C        2.520369000      2.395492000      0.522597000
C        4.019051000      0.156229000      0.383244000
C        3.889465000      2.511168000      0.459951000
H        1.875001000      3.259902000      0.604998000
C        4.681394000      1.371868000      0.390255000
H        4.578223000     -0.762525000      0.355662000
H        4.326307000      3.498243000      0.476569000
N        0.580824000     -1.076923000      0.706133000
N        1.902614000      1.218323000      0.503582000
C        2.310693000     -4.909602000     -0.224423000
C        6.196185000      1.490834000      0.333975000
C        6.683217000      2.224061000      1.584193000
H        6.403970000      1.682488000      2.487475000
H        7.768872000      2.315149000      1.563993000
H        6.267104000      3.227118000      1.654123000
C        6.581463000      2.285862000     -0.914034000
H        6.160071000      3.289123000     -0.901400000
H        7.665219000      2.380656000     -0.976323000
H        6.230921000      1.787529000     -1.817400000
C        6.879854000      0.131101000      0.272928000
H        6.661502000     -0.473017000      1.153318000
H        6.589339000     -0.430189000     -0.614960000
H        7.959394000      0.269740000      0.232240000
C        2.106394000     -5.839890000      0.971757000
H        2.599099000     -5.446176000      1.860369000
H        1.052082000     -5.973658000      1.206052000
H        2.526496000     -6.822098000      0.756686000
C        1.591959000     -5.477395000     -1.448681000
H        1.712320000     -4.821464000     -2.310300000
H        2.003652000     -6.453611000     -1.703422000
H        0.525686000     -5.602400000     -1.271107000
C        3.801163000     -4.833939000     -0.529637000
H        4.176093000     -5.831095000     -0.756353000
H        4.006764000     -4.203416000     -1.394391000
H        4.370316000     -4.456168000      0.319614000
B       -1.000759000      2.884803000      0.745276000
H       -0.988261000      0.839108000     -0.547618000
O       -2.135173000      3.397300000      0.102207000
O       -0.304706000      3.971797000      1.323921000
C       -2.333393000      4.748902000      0.503041000
C       -0.894669000      5.195408000      0.886363000
C       -0.091691000      5.678785000     -0.311790000
H       -0.444573000      6.642063000     -0.677538000
H        0.950432000      5.791123000     -0.013700000
H       -0.138819000      4.956579000     -1.125522000
C       -0.819777000      6.213336000      2.003007000
H        0.221601000      6.465225000      2.199410000
H       -1.344085000      7.129484000      1.730445000
H       -1.249877000      5.822558000      2.920779000
C       -2.953598000      5.522601000     -0.640318000
H       -3.953913000      5.139449000     -0.835256000
H       -3.038093000      6.581300000     -0.394061000
H       -2.372714000      5.418351000     -1.552536000
C       -3.280849000      4.734645000      1.692528000
H       -3.513393000      5.740995000      2.038476000
H       -4.208803000      4.253848000      1.387746000
H       -2.865332000      4.155572000      2.515196000