100
155_IrBpin2Hdtbbpy_e2PhH_cis
Ir       0.863558000      0.027117000     -0.317364000
B        1.678129000      0.082235000      1.535546000
O        1.596615000      1.086015000      2.510730000
O        2.406662000     -0.996641000      2.097187000
C        2.501705000      0.794404000      3.569059000
C        2.618604000     -0.752685000      3.486953000
C        1.934381000      1.319034000      4.870420000
C        3.812006000      1.499671000      3.255333000
C        1.509179000     -1.465422000      4.245065000
C        3.963510000     -1.313801000      3.893164000
H        2.562982000      1.031949000      5.713675000
H        1.892230000      2.406422000      4.834385000
H        0.926215000      0.951934000      5.041240000
H        3.614519000      2.565124000      3.155021000
H        4.548831000      1.358902000      4.045071000
H        4.225905000      1.153279000      2.310148000
H        1.533202000     -2.524147000      3.987916000
H        1.630615000     -1.376256000      5.323663000
H        0.533765000     -1.065841000      3.970402000
H        4.193192000     -1.062888000      4.928861000
H        3.949934000     -2.399291000      3.803607000
H        4.757833000     -0.933642000      3.256927000
C       -1.009189000     -2.241455000     -1.340954000
C       -0.234475000     -2.775078000      0.744751000
C       -1.700093000     -3.436091000     -1.409500000
C       -0.900145000     -3.984191000      0.739497000
H        0.382683000     -2.475237000      1.580534000
C       -1.660409000     -4.343880000     -0.360372000
H       -2.275974000     -3.668938000     -2.289737000
H       -0.807455000     -4.626149000      1.600689000
C       -1.018508000     -1.242431000     -2.440329000
C       -0.293793000      0.799895000     -3.171083000
C       -1.752017000     -1.422270000     -3.604138000
C       -0.995841000      0.683211000     -4.346626000
H        0.281543000      1.685097000     -2.939489000
C       -1.748433000     -0.458513000     -4.594942000
H       -2.330079000     -2.319869000     -3.732544000
H       -0.951248000      1.493645000     -5.058584000
N       -0.285566000     -1.923085000     -0.266197000
N       -0.290414000     -0.149012000     -2.241542000
C        3.158316000     -0.562570000     -1.472328000
C        3.074516000     -0.238975000     -2.834035000
C        2.692228000     -1.793801000     -1.033729000
C        2.535397000     -1.126795000     -3.729336000
H        3.448206000      0.718125000     -3.170781000
C        2.158289000     -2.700785000     -1.958918000
H        2.831589000     -2.080290000     -0.001323000
C        2.073724000     -2.370483000     -3.287638000
H        2.472700000     -0.870490000     -4.778419000
H        1.810046000     -3.666515000     -1.617043000
H        1.658487000     -3.074063000     -3.996861000
H        3.673767000      0.102045000     -0.797039000
C       -2.428381000     -5.653444000     -0.455286000
C       -2.251907000     -6.508880000      0.792549000
H       -2.620055000     -6.003567000      1.684765000
H       -2.817075000     -7.433442000      0.682412000
H       -1.208821000     -6.778875000      0.954334000
C       -1.922045000     -6.444530000     -1.661748000
H       -2.456146000     -7.391323000     -1.738553000
H       -2.070810000     -5.903907000     -2.594791000
H       -0.858462000     -6.662053000     -1.566790000
C       -3.916403000     -5.346356000     -0.626707000
H       -4.485335000     -6.274004000     -0.684595000
H       -4.293891000     -4.767927000      0.215943000
H       -4.113133000     -4.779621000     -1.535057000
C       -2.522938000     -0.602193000     -5.895723000
C       -3.282328000     -1.920438000     -5.972173000
H       -4.021639000     -2.008779000     -5.176364000
H       -3.815074000     -1.978340000     -6.920480000
H       -2.611782000     -2.778128000     -5.920918000
C       -3.528676000      0.544109000     -6.004978000
H       -3.037872000      1.515380000     -6.007528000
H       -4.097138000      0.455745000     -6.930522000
H       -4.230057000      0.527067000     -5.171356000
C       -1.540435000     -0.540010000     -7.065550000
H       -1.001382000      0.405085000     -7.092004000
H       -0.806093000     -1.342700000     -7.000760000
H       -2.075109000     -0.644314000     -8.009448000
B        1.653339000      1.890548000     -0.442951000
H       -0.299648000      0.810228000      0.360046000
O        0.937984000      3.031543000     -0.855435000
O        2.984212000      2.290479000     -0.206111000
C        1.710329000      4.190798000     -0.551654000
C        3.159048000      3.640056000     -0.626281000
C        3.701814000      3.612393000     -2.047182000
H        3.937763000      4.611102000     -2.412278000
H        4.614376000      3.017687000     -2.062101000
H        2.984162000      3.154897000     -2.726913000
C        4.151092000      4.325847000      0.286777000
H        5.130988000      3.863699000      0.174660000
H        4.243644000      5.382789000      0.035943000
H        3.855701000      4.237918000      1.327883000
C        1.389535000      5.284404000     -1.546162000
H        0.353677000      5.595738000     -1.420549000
H        2.026381000      6.154442000     -1.385473000
H        1.516703000      4.944079000     -2.570605000
C        1.326276000      4.630181000      0.852829000
H        1.838275000      5.546198000      1.144937000
H        0.252897000      4.810204000      0.878197000
H        1.548620000      3.845788000      1.575260000