100
160_IrBpin2Hdtbbpy_trans_OAPhH
Ir       0.592608000      0.619276000      0.163719000
C       -0.791314000     -1.582058000     -1.357908000
C        0.049126000     -2.374904000      0.628830000
C       -1.332762000     -2.819755000     -1.637257000
C       -0.467181000     -3.631630000      0.401482000
H        0.627087000     -2.147796000      1.511209000
C       -1.183301000     -3.881757000     -0.756969000
H       -1.876816000     -2.964169000     -2.555178000
H       -0.296685000     -4.396548000      1.141335000
C       -0.888517000     -0.426076000     -2.277580000
C       -0.293120000      1.745692000     -2.682647000
C       -1.559324000     -0.493615000     -3.488220000
C       -0.939318000      1.742174000     -3.895634000
H        0.245798000      2.610863000     -2.327162000
C       -1.605534000      0.602839000     -4.328427000
H       -2.051573000     -1.407101000     -3.770052000
H       -0.916274000      2.640392000     -4.494033000
N       -0.110288000     -1.374967000     -0.226002000
N       -0.276285000      0.686610000     -1.881229000
C       -1.787453000     -5.236464000     -1.090337000
C       -1.511216000     -6.266088000     -0.002567000
H       -1.939116000     -5.968534000      0.954154000
H       -1.961286000     -7.217986000     -0.280959000
H       -0.443510000     -6.435577000      0.133538000
C       -1.185205000     -5.740999000     -2.402243000
H       -1.598886000     -6.718119000     -2.650261000
H       -1.398411000     -5.070714000     -3.233105000
H       -0.102932000     -5.840695000     -2.322124000
C       -3.301140000     -5.081099000     -1.240277000
H       -3.753934000     -6.045994000     -1.466775000
H       -3.746716000     -4.702373000     -0.321118000
H       -3.562881000     -4.394964000     -2.043737000
C       -2.335147000      0.596687000     -5.662263000
C       -3.000446000     -0.743311000     -5.948620000
H       -3.746434000     -0.994071000     -5.194746000
H       -3.510163000     -0.697562000     -6.910088000
H       -2.273494000     -1.553612000     -6.002841000
C       -3.414239000      1.679730000     -5.639332000
H       -2.990113000      2.670700000     -5.489423000
H       -3.954675000      1.689000000     -6.585581000
H       -4.131119000      1.498736000     -4.838999000
C       -1.331795000      0.890412000     -6.777721000
H       -0.857983000      1.861959000     -6.651044000
H       -0.545464000      0.136468000     -6.803037000
H       -1.835903000      0.889436000     -7.743850000
C       -1.376864000      0.876589000      0.971229000
C       -2.359539000      1.636432000      0.335444000
C       -1.769199000      0.236735000      2.148387000
C       -3.650362000      1.748451000      0.832063000
H       -2.120504000      2.170499000     -0.576449000
C       -3.056490000      0.332188000      2.653408000
H       -1.044745000     -0.350276000      2.700268000
C       -4.009719000      1.091151000      1.995335000
H       -4.377743000      2.356128000      0.307590000
H       -3.313793000     -0.180525000      3.572176000
H       -5.014142000      1.175944000      2.388499000
H        1.124658000      0.410413000      1.624871000
H        0.759569000      2.153490000      0.591057000
B        2.394945000     -0.324214000     -0.506104000
O        2.840224000     -0.460158000     -1.817233000
O        3.040638000     -1.250330000      0.301291000
C        3.617291000     -1.658608000     -1.912141000
C        4.096763000     -1.857653000     -0.446205000
C        2.677534000     -2.757563000     -2.383877000
H        2.211439000     -2.438967000     -3.315070000
H        3.207747000     -3.691539000     -2.564354000
H        1.888741000     -2.940847000     -1.656106000
C        4.722882000     -1.459360000     -2.924300000
H        5.372678000     -2.333547000     -2.961865000
H        4.290120000     -1.314946000     -3.912931000
H        5.327167000     -0.587530000     -2.691617000
C        4.238593000     -3.300884000     -0.015821000
H        4.979105000     -3.817388000     -0.626326000
H        4.568856000     -3.338476000      1.020800000
H        3.293442000     -3.832598000     -0.087736000
C        5.367896000     -1.090772000     -0.126250000
H        5.527403000     -1.115987000      0.949886000
H        6.237164000     -1.523354000     -0.618913000
H        5.273901000     -0.046883000     -0.417146000
B        2.234844000      1.854250000     -0.190367000
O        2.258882000      2.749118000     -1.269264000
O        3.366183000      2.056399000      0.595507000
C        3.521108000      3.418564000     -1.282517000
C        3.971222000      3.289231000      0.200717000
C        4.425787000      2.671354000     -2.246753000
H        3.945082000      2.639017000     -3.222972000
H        5.392934000      3.160528000     -2.351080000
H        4.574113000      1.644493000     -1.923317000
C        3.320427000      4.840170000     -1.759596000
H        4.248953000      5.406025000     -1.686501000
H        3.011520000      4.834278000     -2.803896000
H        2.554091000      5.349942000     -1.182445000
C        3.390997000      4.376861000      1.090312000
H        3.571162000      4.108007000      2.129396000
H        3.851009000      5.344712000      0.897653000
H        2.314908000      4.466159000      0.950854000
C        5.466332000      3.197559000      0.406523000
H        5.960801000      4.099245000      0.045568000
H        5.680318000      3.094723000      1.468861000
H        5.890187000      2.338887000     -0.106162000