100
163_IrBpinH2dtbbpy_cis_OcoordPhBpin
Ir       0.189902000      1.523515000     -0.329114000
B        3.369334000     -0.515486000     -0.545739000
O        2.747331000      0.701468000     -0.701874000
O        4.728975000     -0.394708000     -0.423624000
C        3.760083000      1.727135000     -0.491374000
C        5.068105000      0.950938000     -0.810730000
C        3.678533000      2.145678000      0.963505000
C        3.471134000      2.898074000     -1.396757000
C        6.280526000      1.397666000     -0.028534000
C        5.387642000      0.911843000     -2.294579000
H        3.891081000      1.308109000      1.627408000
H        4.385800000      2.945010000      1.175591000
H        2.672819000      2.509290000      1.158776000
H        2.527695000      3.352933000     -1.102975000
H        4.266114000      3.638944000     -1.314006000
H        3.383838000      2.588978000     -2.434333000
H        6.502818000      2.443964000     -0.233958000
H        6.134855000      1.274240000      1.040384000
H        7.142441000      0.802656000     -0.324803000
H        4.519537000      0.610000000     -2.878221000
H        5.723077000      1.882975000     -2.652694000
H        6.180604000      0.186078000     -2.464537000
B       -1.607644000      2.233216000      0.086332000
O       -2.683554000      1.382851000      0.432190000
O       -2.075480000      3.548812000      0.081720000
C       -3.890655000      2.135109000      0.379408000
C       -3.382651000      3.579906000      0.642904000
C       -4.861657000      1.600722000      1.409291000
C       -4.468627000      1.961560000     -1.017299000
C       -3.235491000      3.885668000      2.125597000
C       -4.188526000      4.669110000     -0.030682000
H       -4.409894000      1.564284000      2.396726000
H       -5.759078000      2.217852000      1.455960000
H       -5.160338000      0.588687000      1.137989000
H       -3.789618000      2.363501000     -1.767998000
H       -4.593024000      0.896442000     -1.210406000
H       -5.436920000      2.449044000     -1.122938000
H       -4.201498000      3.998448000      2.616191000
H       -2.673321000      3.100285000      2.628379000
H       -2.680753000      4.816099000      2.232759000
H       -3.759895000      5.640111000      0.211935000
H       -4.175243000      4.559746000     -1.111509000
H       -5.223000000      4.657840000      0.313344000
C       -0.399140000     -1.160731000      0.932724000
C        0.853489000      0.071635000      2.393441000
C       -0.337110000     -2.261336000      1.770993000
C        0.939244000     -0.976743000      3.278097000
H        1.311029000      1.026684000      2.604074000
C        0.343382000     -2.194490000      2.971834000
H       -0.799398000     -3.181299000      1.459247000
H        1.480143000     -0.831763000      4.201213000
C       -1.107816000     -1.193517000     -0.364479000
C       -1.394356000     -0.209278000     -2.405941000
C       -2.041294000     -2.168123000     -0.674875000
C       -2.310068000     -1.159752000     -2.787457000
H       -1.120741000      0.608862000     -3.056086000
C       -2.670738000     -2.172054000     -1.904145000
H       -2.284934000     -2.911939000      0.063359000
H       -2.753051000     -1.086336000     -3.769433000
N        0.210157000     -0.014576000      1.234293000
N       -0.803294000     -0.216632000     -1.215069000
C        2.661945000     -1.905962000     -0.566794000
C        1.696463000     -2.190220000     -1.524624000
C        3.044921000     -2.919195000      0.307352000
C        1.119033000     -3.445438000     -1.604856000
H        1.393149000     -1.418119000     -2.217661000
C        2.460318000     -4.170561000      0.243458000
H        3.816598000     -2.725426000      1.041242000
C        1.494765000     -4.435545000     -0.714662000
H        0.372337000     -3.646951000     -2.361016000
H        2.768493000     -4.948835000      0.929025000
H        1.047055000     -5.418873000     -0.775038000
H        0.162681000      2.542710000     -1.550838000
C        0.444089000     -3.366095000      3.935714000
C       -0.191327000     -4.629511000      3.369424000
H       -0.075462000     -5.445540000      4.081661000
H       -1.258792000     -4.501865000      3.191344000
H        0.282316000     -4.932845000      2.435961000
C       -0.275000000     -2.993671000      5.232588000
H        0.170416000     -2.118957000      5.703569000
H       -1.325387000     -2.772679000      5.045207000
H       -0.221432000     -3.819242000      5.942195000
C        1.916113000     -3.655562000      4.229600000
H        2.412973000     -2.807735000      4.697145000
H        2.000966000     -4.503270000      4.909254000
H        2.454723000     -3.896475000      3.314207000
C       -3.718676000     -3.200721000     -2.298263000
C       -3.949779000     -4.234213000     -1.203331000
H       -3.041499000     -4.792099000     -0.975461000
H       -4.314936000     -3.776224000     -0.284546000
H       -4.701265000     -4.950760000     -1.532557000
C       -5.038247000     -2.478460000     -2.571783000
H       -4.944936000     -1.756512000     -3.381089000
H       -5.808092000     -3.197181000     -2.852693000
H       -5.379135000     -1.943729000     -1.685539000
C       -3.257692000     -3.928573000     -3.561027000
H       -3.113130000     -3.244942000     -4.395366000
H       -2.316695000     -4.451095000     -3.388813000
H       -4.002774000     -4.665107000     -3.861324000
H        0.725568000      2.802933000      0.445391000