100
165_IrBpinH2dtbbpy_trans_OCoordPhBpin
Ir      -0.773467000     -0.753684000     -1.167659000
C        1.538870000      1.204563000     -0.683544000
C       -0.460365000      2.310543000     -0.663641000
C        2.212911000      2.377380000     -0.408477000
C        0.151826000      3.514000000     -0.384959000
H       -1.530252000      2.241744000     -0.788839000
C        1.525689000      3.569890000     -0.234866000
H        3.288185000      2.368453000     -0.343285000
H       -0.467987000      4.388909000     -0.277724000
C        2.240354000     -0.076245000     -0.942857000
C        2.058033000     -2.213328000     -1.727272000
C        3.611963000     -0.227061000     -0.787592000
C        3.411831000     -2.424328000     -1.620056000
H        1.393986000     -2.979016000     -2.102262000
C        4.229695000     -1.419777000     -1.112847000
H        4.193233000      0.591601000     -0.401459000
H        3.815414000     -3.379101000     -1.922230000
N        0.206517000      1.172518000     -0.790053000
N        1.474561000     -1.075284000     -1.370067000
C        2.283390000      4.854208000      0.063953000
C        3.129985000      5.216202000     -1.156716000
H        2.502496000      5.362723000     -2.035254000
H        3.680495000      6.138895000     -0.972858000
H        3.852851000      4.435977000     -1.390708000
C        3.192129000      4.645718000      1.275331000
H        3.719019000      5.570786000      1.508213000
H        2.613104000      4.353164000      2.149998000
H        3.942890000      3.877773000      1.098430000
C        1.338413000      6.010078000      0.366923000
H        1.917136000      6.899861000      0.611700000
H        0.709807000      6.255648000     -0.488058000
H        0.693433000      5.786585000      1.216407000
C        5.720878000     -1.658342000     -0.936132000
C        5.918732000     -2.822124000      0.036081000
H        5.469586000     -3.740977000     -0.336400000
H        6.981993000     -3.008588000      0.185997000
H        5.472189000     -2.599923000      1.005221000
C        6.336242000     -2.006142000     -2.291412000
H        6.191884000     -1.194777000     -3.004203000
H        7.407009000     -2.176968000     -2.182646000
H        5.898982000     -2.906679000     -2.718400000
C        6.437643000     -0.435310000     -0.378728000
H        6.058441000     -0.156065000      0.604040000
H        7.498810000     -0.654951000     -0.269332000
H        6.348406000      0.423971000     -1.043083000
C       -0.454804000      1.042149000      2.409716000
C       -1.753592000      1.428724000      2.090707000
C        0.394226000      1.974344000      2.996464000
C       -2.190739000      2.714347000      2.359097000
H       -2.423542000      0.709193000      1.635974000
C       -0.032887000      3.266728000      3.243748000
H        1.397957000      1.679952000      3.275367000
C       -1.330243000      3.635912000      2.930377000
H       -3.207399000      3.000223000      2.124547000
H        0.636247000      3.981628000      3.703869000
H       -1.673891000      4.640083000      3.141583000
H       -1.362390000     -2.183798000     -1.550814000
B       -2.739185000     -0.413659000     -0.953309000
O       -3.514538000     -0.795693000      0.173699000
O       -3.605976000      0.244478000     -1.845961000
C       -4.895439000     -0.656147000     -0.140898000
C       -4.872096000      0.447345000     -1.234446000
C       -5.377314000     -1.996956000     -0.674014000
H       -4.836792000     -2.268332000     -1.579281000
H       -5.180836000     -2.761317000      0.076457000
H       -6.445230000     -1.990840000     -0.888220000
C       -5.662367000     -0.296095000      1.113630000
H       -5.619424000     -1.125761000      1.818003000
H       -5.241962000      0.579269000      1.602217000
H       -6.710417000     -0.099204000      0.886832000
C       -4.875805000      1.853006000     -0.651582000
H       -4.110344000      1.953278000      0.116379000
H       -4.649359000      2.559159000     -1.449175000
H       -5.840631000      2.116811000     -0.220076000
C       -5.958934000      0.327658000     -2.281285000
H       -6.948229000      0.388280000     -1.826885000
H       -5.863902000      1.140932000     -2.999216000
H       -5.878249000     -0.608675000     -2.825877000
H       -1.031887000     -0.413165000     -2.656336000
B       -0.043676000     -0.452712000      2.262878000
O        0.614651000     -1.112396000      3.267436000
O       -0.373569000     -1.304043000      1.222894000
C        0.792141000     -2.478688000      2.855242000
C       -0.322320000     -2.647228000      1.788053000
C        0.640791000     -3.375932000      4.060471000
H        0.674794000     -4.423285000      3.763059000
H        1.456129000     -3.193432000      4.758090000
H       -0.295564000     -3.189159000      4.577929000
C        2.191826000     -2.591695000      2.276790000
H        2.436048000     -3.621171000      2.021740000
H        2.299499000     -1.977180000      1.384339000
H        2.905212000     -2.243062000      3.021923000
C       -1.698989000     -2.895365000      2.376814000
H       -1.911543000     -2.210566000      3.197026000
H       -2.436571000     -2.718786000      1.596039000
H       -1.794429000     -3.916022000      2.742281000
C       -0.019103000     -3.679173000      0.734731000
H        0.052316000     -4.658985000      1.207267000
H       -0.817861000     -3.697861000     -0.001224000
H        0.912116000     -3.475320000      0.219487000