68
167_IrBpinH2dtbbpy_vac_trans
Ir       1.838873000     -1.733889000     -0.351674000
C       -1.100093000     -2.486083000     -0.977911000
C       -0.571160000     -3.222487000      1.123561000
C       -2.340440000     -3.086613000     -0.895456000
C       -1.797745000     -3.837844000      1.274166000
H        0.177282000     -3.258745000      1.902105000
C       -2.721765000     -3.781700000      0.245098000
H       -3.019251000     -3.026155000     -1.729845000
H       -2.004515000     -4.357146000      2.195903000
C       -0.643626000     -1.737950000     -2.178055000
C        1.082576000     -0.651682000     -3.221812000
C       -1.481504000     -1.485373000     -3.252336000
C        0.302283000     -0.380186000     -4.321545000
H        2.115335000     -0.336402000     -3.156518000
C       -1.022282000     -0.794345000     -4.359384000
H       -2.501458000     -1.824486000     -3.217416000
H        0.744089000      0.164165000     -5.142686000
N       -0.225926000     -2.563185000      0.029101000
N        0.621966000     -1.317029000     -2.164163000
C       -4.092143000     -4.437895000      0.313373000
C       -4.320870000     -5.141492000      1.644709000
H       -4.270014000     -4.447702000      2.483227000
H       -5.312254000     -5.592474000      1.651799000
H       -3.596982000     -5.938547000      1.810916000
C       -4.205413000     -5.470813000     -0.808422000
H       -5.177755000     -5.961001000     -0.767156000
H       -4.104795000     -5.016483000     -1.792479000
H       -3.434914000     -6.235222000     -0.713184000
C       -5.167763000     -3.365154000      0.139319000
H       -6.157759000     -3.817339000      0.192542000
H       -5.096229000     -2.611237000      0.922729000
H       -5.086104000     -2.858470000     -0.820685000
C       -1.893544000     -0.486011000     -5.566718000
C       -3.311937000     -1.017072000     -5.405257000
H       -3.816899000     -0.571440000     -4.548328000
H       -3.894822000     -0.770898000     -6.291840000
H       -3.328922000     -2.101191000     -5.294438000
C       -1.960871000      1.029862000     -5.755074000
H       -0.976567000      1.460816000     -5.927060000
H       -2.585069000      1.272488000     -6.614734000
H       -2.388284000      1.513238000     -4.877011000
C       -1.269826000     -1.132482000     -6.804006000
H       -0.268396000     -0.753087000     -6.997375000
H       -1.200287000     -2.213401000     -6.685588000
H       -1.880370000     -0.924625000     -7.682409000
H        2.521134000     -3.013320000     -0.856701000
H        2.582642000     -2.075312000      1.002663000
B        3.653180000     -0.988505000     -0.843508000
O        4.877544000     -1.145839000     -0.181402000
O        3.905827000     -0.205969000     -2.003984000
C        5.854987000     -0.291622000     -0.760758000
C        5.313597000     -0.100180000     -2.202779000
C        5.861128000      1.002402000      0.039441000
H        6.039914000      0.760195000      1.085505000
H        6.639578000      1.686497000     -0.296396000
H        4.897272000      1.504135000     -0.028433000
C        7.213033000     -0.954331000     -0.674641000
H        7.968970000     -0.364241000     -1.193374000
H        7.507442000     -1.041423000      0.369949000
H        7.193211000     -1.953873000     -1.099792000
C        5.633651000      1.237435000     -2.833570000
H        6.711369000      1.383421000     -2.908483000
H        5.218270000      1.277156000     -3.839955000
H        5.208940000      2.057230000     -2.260822000
C        5.726572000     -1.226817000     -3.137416000
H        5.152737000     -1.146296000     -4.059736000
H        6.785616000     -1.179385000     -3.387122000
H        5.513636000     -2.196593000     -2.690967000