130
187_IrBpin3dtbbpy_OA_N,N-dimethyl-3-nitroaniline
Ir       0.829713000      0.184537000     -0.087703000
B        0.753210000      2.207930000      0.447998000
O        1.356250000      2.802338000      1.545686000
O        0.219945000      3.199415000     -0.387137000
C        1.100755000      4.204276000      1.521880000
C        0.774816000      4.455797000      0.019681000
C        2.326552000      4.930428000      2.032212000
C       -0.077373000      4.475998000      2.440493000
C        2.020398000      4.686210000     -0.820919000
C       -0.236256000      5.549547000     -0.238759000
H        2.207982000      6.009483000      1.934113000
H        2.468790000      4.700031000      3.086649000
H        3.221803000      4.621864000      1.500258000
H        0.150569000      4.074424000      3.425980000
H       -0.276262000      5.542558000      2.534205000
H       -0.972535000      3.975606000      2.083200000
H        1.742925000      4.664167000     -1.873911000
H        2.477431000      5.651431000     -0.609915000
H        2.760368000      3.906274000     -0.647275000
H        0.126077000      6.505693000      0.137914000
H       -0.402640000      5.649342000     -1.310225000
H       -1.190476000      5.328432000      0.230931000
B        1.872115000     -0.144276000      1.635186000
O        3.134460000      0.340962000      1.932804000
O        1.436747000     -0.965938000      2.682449000
C        3.611782000     -0.288124000      3.122012000
C        2.291155000     -0.734410000      3.809281000
C        4.426445000      0.712226000      3.911911000
C        4.485191000     -1.457667000      2.699733000
C        1.646758000      0.375697000      4.623231000
C        2.393329000     -2.001098000      4.627343000
H        4.718800000      0.299980000      4.877704000
H        5.332210000      0.957696000      3.359860000
H        3.870472000      1.631836000      4.071987000
H        5.266196000     -1.085652000      2.039086000
H        4.956383000     -1.938940000      3.555483000
H        3.913624000     -2.203359000      2.150417000
H        0.641911000      0.064195000      4.903628000
H        2.210365000      0.588074000      5.530549000
H        1.557661000      1.285304000      4.031049000
H        3.105976000     -1.875445000      5.442333000
H        1.422607000     -2.234277000      5.063044000
H        2.706272000     -2.845503000      4.019145000
B       -0.931087000      0.874454000      0.955362000
O       -1.147394000      1.179710000      2.285534000
O       -2.152153000      0.717324000      0.306389000
C       -2.528298000      0.954019000      2.588236000
C       -3.203980000      1.104270000      1.194186000
C       -2.979302000      1.953467000      3.629231000
C       -2.630662000     -0.455208000      3.147753000
C       -3.569572000      2.538461000      0.853279000
C       -4.395484000      0.200070000      0.965667000
H       -4.043805000      1.841123000      3.834143000
H       -2.434888000      1.780636000      4.555998000
H       -2.791267000      2.975872000      3.315529000
H       -1.954539000     -0.542340000      3.996027000
H       -3.641508000     -0.683683000      3.481839000
H       -2.331811000     -1.193660000      2.406534000
H       -3.861426000      2.583513000     -0.194389000
H       -4.397384000      2.900698000      1.460489000
H       -2.716386000      3.200103000      0.984800000
H       -5.186813000      0.410563000      1.684829000
H       -4.792529000      0.370373000     -0.033749000
H       -4.120124000     -0.848175000      1.044487000
C       -1.057531000     -1.847533000     -1.297375000
C       -0.410681000     -2.521186000      0.801066000
C       -1.743551000     -3.029283000     -1.476097000
C       -1.086980000     -3.716905000      0.677526000
H        0.136434000     -2.272870000      1.699446000
C       -1.769225000     -4.005437000     -0.488813000
H       -2.261971000     -3.202923000     -2.403481000
H       -1.050946000     -4.408295000      1.503413000
C       -1.028287000     -0.781384000     -2.326596000
C       -0.271998000      1.299926000     -2.897309000
C       -1.721277000     -0.881437000     -3.523074000
C       -0.932712000      1.263718000     -4.101549000
H        0.296564000      2.164530000     -2.588033000
C       -1.680289000      0.145149000     -4.447786000
H       -2.295413000     -1.765799000     -3.732195000
H       -0.857431000      2.115638000     -4.760198000
N       -0.382707000     -1.611607000     -0.163639000
N       -0.307845000      0.293983000     -2.033986000
C        2.268492000     -1.055248000     -1.078351000
C        2.860091000     -0.665822000     -2.270320000
C        2.612852000     -2.319903000     -0.596547000
C        3.776938000     -1.452862000     -2.977675000
H        2.588637000      0.289230000     -2.698880000
C        3.490773000     -3.106400000     -1.301382000
H        2.199398000     -2.708997000      0.319957000
C        4.095219000     -2.705644000     -2.479335000
H        4.791676000     -3.366690000     -2.963456000
H        1.956830000      1.302951000     -0.285301000
C       -2.508725000     -5.311807000     -0.726608000
C       -2.434016000     -6.234605000      0.482768000
H       -2.885578000     -5.782711000      1.365567000
H       -2.976777000     -7.154790000      0.270940000
H       -1.406578000     -6.507358000      0.720535000
C       -1.873147000     -6.022808000     -1.922180000
H       -2.376393000     -6.972416000     -2.102028000
H       -1.945454000     -5.430750000     -2.832872000
H       -0.818586000     -6.225386000     -1.738733000
C       -3.978469000     -5.011683000     -1.021363000
H       -4.522184000     -5.941274000     -1.187602000
H       -4.445771000     -4.490411000     -0.186112000
H       -4.099196000     -4.394952000     -1.910185000
C       -2.405838000      0.088099000     -5.782811000
C       -3.158003000     -1.222406000     -5.974975000
H       -3.927297000     -1.364564000     -5.216086000
H       -3.653934000     -1.217045000     -6.944699000
H       -2.486957000     -2.080912000     -5.956185000
C       -3.408884000      1.239772000     -5.852568000
H       -2.919845000      2.208605000     -5.770636000
H       -3.940799000      1.215013000     -6.803334000
H       -4.142303000      1.166948000     -5.049940000
C       -1.379147000      0.227466000     -6.907414000
H       -0.846079000      1.174768000     -6.854088000
H       -0.641725000     -0.573362000     -6.862867000
H       -1.876837000      0.179776000     -7.875658000
N        4.318792000     -0.974627000     -4.183289000
N        3.814807000     -4.438417000     -0.780399000
C        5.097026000     -1.902565000     -4.962228000
H        5.306549000     -1.456430000     -5.932816000
H        6.056770000     -2.160534000     -4.494776000
H        4.536139000     -2.819361000     -5.129109000
C        4.928793000      0.336726000     -4.133277000
H        5.911951000      0.311549000     -3.645719000
H        5.056917000      0.715357000     -5.146135000
H        4.304339000      1.037578000     -3.590800000
O        3.307335000     -4.784594000      0.270162000
O        4.572662000     -5.139539000     -1.423675000