120
96_IrBpin3dtbbpy_OAPhH
Ir       0.845304000      0.203770000     -0.070572000
B        0.707681000      2.219052000      0.477345000
O        1.276944000      2.829874000      1.585513000
O        0.158863000      3.199013000     -0.363395000
C        0.982312000      4.223133000      1.558971000
C        0.675208000      4.467995000      0.052058000
C        2.177476000      4.983438000      2.091816000
C       -0.219620000      4.459619000      2.456630000
C        1.928630000      4.731651000     -0.766929000
C       -0.358865000      5.536279000     -0.222466000
H        2.030140000      6.058885000      1.992391000
H        2.307610000      4.755684000      3.148463000
H        3.090166000      4.700794000      1.575320000
H        0.000523000      4.059572000      3.444544000
H       -0.449217000      5.520043000      2.550647000
H       -1.093908000      3.937060000      2.079691000
H        1.670087000      4.704357000     -1.824575000
H        2.356524000      5.708122000     -0.546563000
H        2.685386000      3.970599000     -0.582742000
H       -0.027596000      6.500917000      0.161271000
H       -0.509136000      5.633260000     -1.296597000
H       -1.315276000      5.290234000      0.230242000
B        1.892645000     -0.117709000      1.647075000
O        3.113772000      0.444552000      1.983192000
O        1.496212000     -0.990034000      2.673908000
C        3.607348000     -0.169759000      3.170581000
C        2.306186000     -0.714227000      3.821841000
C        4.338240000      0.868534000      3.993321000
C        4.564652000     -1.271580000      2.747999000
C        1.571851000      0.339843000      4.634586000
C        2.476168000     -1.980285000      4.629880000
H        4.637132000      0.461050000      4.959285000
H        5.236617000      1.181760000      3.464054000
H        3.719616000      1.747080000      4.154087000
H        5.336025000     -0.836661000      2.115296000
H        5.042926000     -1.743488000      3.605323000
H        4.051819000     -2.032753000      2.163121000
H        0.583409000     -0.040340000      4.887167000
H        2.099896000      0.575457000      5.557529000
H        1.436738000      1.249925000      4.052055000
H        3.158148000     -1.815906000      5.464106000
H        1.513381000     -2.285660000      5.037911000
H        2.862188000     -2.793494000      4.020993000
B       -0.933198000      0.832499000      0.987521000
O       -1.158571000      1.122479000      2.321279000
O       -2.152798000      0.634827000      0.343977000
C       -2.528679000      0.849242000      2.628566000
C       -3.215718000      0.972121000      1.236656000
C       -3.010978000      1.834881000      3.669146000
C       -2.580772000     -0.560892000      3.193222000
C       -3.648475000      2.388555000      0.900231000
C       -4.365496000      0.014344000      1.009951000
H       -4.070057000      1.685775000      3.878981000
H       -2.456771000      1.683703000      4.593948000
H       -2.859955000      2.862404000      3.352175000
H       -1.903774000     -0.620463000      4.043210000
H       -3.583272000     -0.824700000      3.526706000
H       -2.253705000     -1.290491000      2.455371000
H       -3.946828000      2.421531000     -0.146065000
H       -4.489137000      2.712178000      1.511725000
H       -2.825939000      3.088383000      1.028627000
H       -5.162262000      0.183002000      1.734197000
H       -4.775325000      0.170730000      0.013365000
H       -4.039376000     -1.020058000      1.080901000
C       -1.037680000     -1.826640000     -1.296168000
C       -0.367155000     -2.525814000      0.785070000
C       -1.790655000     -2.971237000     -1.449916000
C       -1.102040000     -3.688744000      0.683186000
H        0.209453000     -2.297754000      1.670363000
C       -1.842120000     -3.939342000     -0.457042000
H       -2.353957000     -3.113551000     -2.356238000
H       -1.079626000     -4.378357000      1.511372000
C       -0.983402000     -0.768177000     -2.331616000
C       -0.233078000      1.318085000     -2.888289000
C       -1.625605000     -0.888284000     -3.554306000
C       -0.851890000      1.266859000     -4.114261000
H        0.316337000      2.190028000     -2.565759000
C       -1.566916000      0.134247000     -4.482430000
H       -2.166547000     -1.788234000     -3.784310000
H       -0.765040000      2.116253000     -4.774827000
N       -0.331462000     -1.615145000     -0.177876000
N       -0.286613000      0.317008000     -2.020673000
C        2.314466000     -0.969153000     -1.097739000
C        2.880019000     -0.522975000     -2.293405000
C        2.731275000     -2.226070000     -0.660108000
C        3.796216000     -1.277855000     -3.009009000
H        2.605406000      0.449269000     -2.684984000
C        3.645850000     -2.993965000     -1.364457000
H        2.339452000     -2.629669000      0.266583000
C        4.185743000     -2.523908000     -2.548666000
H        4.211767000     -0.887399000     -3.929815000
H        3.942368000     -3.962821000     -0.981584000
H        4.903296000     -3.116059000     -3.100804000
H        1.949507000      1.348061000     -0.244122000
C       -2.683896000     -5.189810000     -0.653990000
C       -2.594277000     -6.129255000      0.541454000
H       -2.958976000     -5.659390000      1.454311000
H       -3.208163000     -7.010101000      0.358287000
H       -1.573511000     -6.469644000      0.712265000
C       -2.188730000     -5.932988000     -1.894983000
H       -2.769748000     -6.843206000     -2.041041000
H       -2.284851000     -5.330395000     -2.796313000
H       -1.140451000     -6.210662000     -1.790394000
C       -4.144968000     -4.780886000     -0.843912000
H       -4.765206000     -5.666068000     -0.983386000
H       -4.515497000     -4.240834000      0.027145000
H       -4.278514000     -4.141373000     -1.714652000
C       -2.238716000      0.057761000     -5.844456000
C       -2.962904000     -1.265385000     -6.056792000
H       -3.758182000     -1.414250000     -5.326458000
H       -3.421492000     -1.273620000     -7.044762000
H       -2.280092000     -2.113237000     -6.006224000
C       -3.256247000      1.192921000     -5.960436000
H       -2.785721000      2.169865000     -5.867320000
H       -3.751794000      1.153274000     -6.930225000
H       -4.017761000      1.113865000     -5.185013000
C       -1.172124000      0.206609000     -6.929857000
H       -0.653686000      1.160907000     -6.859679000
H       -0.426674000     -0.584388000     -6.853954000
H       -1.631810000      0.149032000     -7.916246000