12
Benzene
  C          -0.10686004306415      2.29289134312446      0.22418755528390
  C           1.27792651660205      2.29284123266904      0.22462735336903
  C           1.97038447191418      3.49195048829463      0.22408242259623
  C           1.27799508037000      4.69121903195569      0.22309255983545
  C          -0.10669689550431      4.69127020672089      0.22265040571879
  C          -0.79919979112311      3.49207848189300      0.22319990654493
  H          -0.64753793423251      1.35633040509697      0.22461145831094
  H           1.81847825561333      1.35620491260952      0.22540128150736
  H           3.05180242968102      3.49198945138556      0.22442406145352
  H           1.81884860553434      5.62767894439869      0.22266957698481
  H          -0.64742923387241      5.62780259709127      0.22187487292444
  H          -1.88061834191846      3.49221114476027      0.22286018547060