22
HBpin
  C           0.43258800123456      2.15469755662904      2.34967577248207
  C           1.28327322113253      0.95143698434558      2.68320379872860
  C           0.74902204513343     -0.28079667835531      1.97535127282669
  C           2.81577594999131      1.15572271156670      2.48181164960992
  C           3.35452491330782      0.66000561884401      1.16018274318216
  C           3.26279865617541      2.58558530364053      2.72717130539102
  O           3.37556929336061      0.35836191752273      3.54409460188357
  B           2.41205137899423      0.23054412586015      4.50670341003433
  H           2.61541568989185     -0.23171638613346      5.58686390987118
  O           1.19014611640830      0.68968353237020      4.09748821987210
  H           0.54815492703636      2.42685851420741      1.30124078669882
  H           0.69144777743910      3.01132077807937      2.96488295454153
  H          -0.61502654050081      1.91784874618549      2.52495558144094
  H           0.72398337922386     -0.14141157738045      0.89639207820444
  H          -0.26459721877370     -0.47101672241655      2.32239480424742
  H           1.35262774915456     -1.15860030212400      2.19940711306979
  H           2.88712623129503      1.19138511410037      0.33201194017391
  H           3.18570977238644     -0.40516109083210      1.03321365700943
  H           4.42701833382243      0.83931769845461      1.11563588030780
  H           2.93327337257533      3.24893312981157      1.92989138656507
  H           4.34993127594215      2.60971332430138      2.76852142288263
  H           2.88118567476919      2.96278770132272      3.67440571097656